Hi, this text file is supposed to show off how nl2br works.
New line.

Empty line above.
